<?xml version="1.0" encoding="UTF-8"?>

<!-- generated on 2022-03-29 23:55:29 by Eclipse SUMO netconvert Version 1.12.0
<configuration xmlns:xsi="http://www.w3.org/2001/XMLSchema-instance" xsi:noNamespaceSchemaLocation="http://sumo.dlr.de/xsd/netconvertConfiguration.xsd">

    <input>
        <osm-files value="rochester2.osm.xml"/>
    </input>

    <output>
        <output-file value="rochester2.net.xml"/>
    </output>

    <projection>
        <proj.utm value="true"/>
    </projection>

    <processing>
        <offset.disable-normalization value="true"/>
    </processing>

    <junctions>
        <junctions.corner-detail value="0"/>
    </junctions>

    <report>
        <aggregate-warnings value="5"/>
    </report>

</configuration>
-->

<net version="1.9" limitTurnSpeed="5.50" xmlns:xsi="http://www.w3.org/2001/XMLSchema-instance" xsi:noNamespaceSchemaLocation="http://sumo.dlr.de/xsd/net_file.xsd">

    <location netOffset="0.00,0.00" convBoundary="289084.54,4779904.33,291619.01,4782249.04" origBoundary="-77.593854,43.142605,-77.562567,43.163714" projParameter="+proj=utm +zone=18 +ellps=WGS84 +datum=WGS84 +units=m +no_defs"/>

    <type id="highway.bridleway" priority="1" numLanes="1" speed="2.78" allow="pedestrian" oneway="1" width="2.00"/>
    <type id="highway.bus_guideway" priority="1" numLanes="1" speed="27.78" allow="bus" oneway="1"/>
    <type id="highway.cycleway" priority="1" numLanes="1" speed="8.33" allow="bicycle" oneway="0" width="1.00"/>
    <type id="highway.footway" priority="1" numLanes="1" speed="2.78" allow="pedestrian" oneway="1" width="2.00"/>
    <type id="highway.ford" priority="1" numLanes="1" speed="2.78" allow="army" oneway="0"/>
    <type id="highway.living_street" priority="2" numLanes="1" speed="2.78" disallow="tram rail_urban rail rail_electric rail_fast ship" oneway="0"/>
    <type id="highway.motorway" priority="14" numLanes="2" speed="39.44" allow="private emergency authority army vip passenger hov taxi bus coach delivery truck trailer motorcycle evehicle custom1 custom2" oneway="1"/>
    <type id="highway.motorway_link" priority="9" numLanes="1" speed="22.22" allow="private emergency authority army vip passenger hov taxi bus coach delivery truck trailer motorcycle evehicle custom1 custom2" oneway="1"/>
    <type id="highway.path" priority="1" numLanes="1" speed="2.78" allow="pedestrian bicycle" oneway="0" width="2.00"/>
    <type id="highway.pedestrian" priority="1" numLanes="1" speed="2.78" allow="pedestrian" oneway="1" width="2.00"/>
    <type id="highway.primary" priority="12" numLanes="2" speed="27.78" disallow="tram rail_urban rail rail_electric rail_fast ship" oneway="0"/>
    <type id="highway.primary_link" priority="7" numLanes="1" speed="22.22" disallow="tram rail_urban rail rail_electric rail_fast ship" oneway="0"/>
    <type id="highway.raceway" priority="15" numLanes="2" speed="83.33" allow="vip" oneway="0"/>
    <type id="highway.residential" priority="3" numLanes="1" speed="13.89" disallow="tram rail_urban rail rail_electric rail_fast ship" oneway="0"/>
    <type id="highway.secondary" priority="11" numLanes="1" speed="27.78" disallow="tram rail_urban rail rail_electric rail_fast ship" oneway="0"/>
    <type id="highway.secondary_link" priority="6" numLanes="1" speed="22.22" disallow="tram rail_urban rail rail_electric rail_fast ship" oneway="0"/>
    <type id="highway.service" priority="1" numLanes="1" speed="5.56" allow="pedestrian delivery bicycle" oneway="0"/>
    <type id="highway.stairs" priority="1" numLanes="1" speed="1.39" allow="pedestrian" oneway="1" width="2.00"/>
    <type id="highway.step" priority="1" numLanes="1" speed="1.39" allow="pedestrian" oneway="1" width="2.00"/>
    <type id="highway.steps" priority="1" numLanes="1" speed="1.39" allow="pedestrian" oneway="1" width="2.00"/>
    <type id="highway.tertiary" priority="10" numLanes="1" speed="22.22" disallow="tram rail_urban rail rail_electric rail_fast ship" oneway="0"/>
    <type id="highway.tertiary_link" priority="5" numLanes="1" speed="22.22" disallow="tram rail_urban rail rail_electric rail_fast ship" oneway="0"/>
    <type id="highway.track" priority="1" numLanes="1" speed="5.56" allow="pedestrian motorcycle moped bicycle" oneway="0"/>
    <type id="highway.trunk" priority="13" numLanes="2" speed="27.78" disallow="pedestrian bicycle tram rail_urban rail rail_electric rail_fast ship" oneway="0"/>
    <type id="highway.trunk_link" priority="8" numLanes="1" speed="22.22" disallow="pedestrian bicycle tram rail_urban rail rail_electric rail_fast ship" oneway="0"/>
    <type id="highway.unclassified" priority="4" numLanes="1" speed="13.89" disallow="tram rail_urban rail rail_electric rail_fast ship" oneway="0"/>
    <type id="highway.unsurfaced" priority="1" numLanes="1" speed="8.33" disallow="tram rail_urban rail rail_electric rail_fast ship" oneway="0"/>
    <type id="railway.highspeed" priority="21" numLanes="1" speed="69.44" allow="rail_fast" oneway="1"/>
    <type id="railway.light_rail" priority="19" numLanes="1" speed="27.78" allow="rail_urban" oneway="1"/>
    <type id="railway.preserved" priority="16" numLanes="1" speed="27.78" allow="rail" oneway="1"/>
    <type id="railway.rail" priority="20" numLanes="1" speed="44.44" allow="rail" oneway="1"/>
    <type id="railway.subway" priority="18" numLanes="1" speed="27.78" allow="rail_urban" oneway="1"/>
    <type id="railway.tram" priority="17" numLanes="1" speed="13.89" allow="tram" oneway="1"/>

    <edge id=":1242650135_0" function="internal">
        <lane id=":1242650135_0_0" index="0" allow="pedestrian delivery bicycle" speed="5.20" length="5.26" shape="290140.27,4780961.49 290139.59,4780960.31 290138.64,4780959.64 290137.42,4780959.47 290135.95,4780959.79"/>
    </edge>
    <edge id=":1242650135_1" function="internal">
        <lane id=":1242650135_1_0" index="0" allow="pedestrian delivery bicycle" speed="5.56" length="9.49" shape="290140.27,4780961.49 290136.59,4780952.74"/>
    </edge>
    <edge id=":1242650135_2" function="internal">
        <lane id=":1242650135_2_0" index="0" allow="pedestrian delivery bicycle" speed="3.65" length="4.67" shape="290140.27,4780961.49 290140.58,4780960.08 290141.18,4780959.41 290142.07,4780959.49 290143.25,4780960.32"/>
    </edge>
    <edge id=":1242650135_3" function="internal">
        <lane id=":1242650135_3_0" index="0" allow="pedestrian delivery bicycle" speed="5.56" length="9.65" shape="290139.50,4780951.43 290143.25,4780960.32"/>
    </edge>
    <edge id=":1242650135_4" function="internal">
        <lane id=":1242650135_4_0" index="0" allow="pedestrian delivery bicycle" speed="5.56" length="10.57" shape="290139.50,4780951.43 290140.31,4780954.24 290139.99,4780956.57 290138.54,4780958.42 290135.95,4780959.79"/>
    </edge>
    <edge id=":1242650135_5" function="internal">
        <lane id=":1242650135_5_0" index="0" allow="pedestrian delivery bicycle" speed="3.65" length="4.67" shape="290139.50,4780951.43 290139.27,4780952.85 290138.70,4780953.54 290137.81,4780953.51 290136.59,4780952.74"/>
    </edge>
    <edge id=":1242650135_6" function="internal">
        <lane id=":1242650135_6_0" index="0" allow="pedestrian delivery bicycle" speed="4.96" length="5.10" shape="290134.87,4780956.78 290136.12,4780956.12 290136.82,4780955.22 290136.98,4780954.10 290136.59,4780952.74"/>
    </edge>
    <edge id=":1242650135_7" function="internal">
        <lane id=":1242650135_7_0" index="0" allow="pedestrian delivery bicycle" speed="5.56" length="10.31" shape="290134.87,4780956.78 290137.70,4780956.18 290140.04,4780956.57 290141.89,4780957.95 290143.25,4780960.32"/>
    </edge>
    <edge id=":1242650135_8" function="internal">
        <lane id=":1242650135_8_0" index="0" allow="pedestrian delivery bicycle" speed="3.65" length="4.67" shape="290134.87,4780956.78 290136.27,4780957.13 290136.91,4780957.75 290136.81,4780958.63 290135.95,4780959.79"/>
    </edge>
    <edge id=":1242650216_0" function="internal">
        <lane id=":1242650216_0_0" index="0" disallow="tram rail_urban rail rail_electric rail_fast ship" speed="27.78" length="9.40" shape="290272.22,4781174.86 290263.66,4781178.76"/>
    </edge>
    <edge id=":1242650216_1" function="internal">
        <lane id=":1242650216_1_0" index="0" allow="pedestrian delivery bicycle" speed="6.83" length="3.30" shape="290272.22,4781174.86 290269.49,4781175.66 290269.04,4781175.61"/>
    </edge>
    <edge id=":1242650216_7" function="internal">
        <lane id=":1242650216_7_0" index="0" allow="pedestrian delivery bicycle" speed="6.83" length="7.05" shape="290269.04,4781175.61 290267.18,4781175.38 290265.30,4781174.01 290263.85,4781171.56"/>
    </edge>
    <edge id=":1242650216_2" function="internal">
        <lane id=":1242650216_2_0" index="0" allow="pedestrian delivery bicycle" speed="5.00" length="5.04" shape="290266.81,4781170.34 290267.52,4781171.53 290268.43,4781172.20 290269.56,4781172.34 290270.89,4781171.95"/>
    </edge>
    <edge id=":1242650216_3" function="internal">
        <lane id=":1242650216_3_0" index="0" allow="pedestrian delivery bicycle" speed="6.95" length="10.17" shape="290266.81,4781170.34 290267.52,4781173.07 290267.24,4781175.38 290265.95,4781177.28 290263.66,4781178.76"/>
    </edge>
    <edge id=":1242650216_4" function="internal">
        <lane id=":1242650216_4_0" index="0" allow="pedestrian delivery bicycle" speed="3.65" length="4.67" shape="290266.81,4781170.34 290266.53,4781171.75 290265.94,4781172.43 290265.05,4781172.36 290263.85,4781171.56"/>
    </edge>
    <edge id=":1242650216_5" function="internal">
        <lane id=":1242650216_5_0" index="0" allow="pedestrian delivery bicycle" speed="5.16" length="5.15" shape="290262.33,4781175.85 290263.47,4781175.11 290264.10,4781174.15 290264.23,4781172.96 290263.85,4781171.56"/>
    </edge>
    <edge id=":1242650216_6" function="internal">
        <lane id=":1242650216_6_0" index="0" disallow="tram rail_urban rail rail_electric rail_fast ship" speed="27.78" length="9.40" shape="290262.33,4781175.85 290270.89,4781171.95"/>
    </edge>
    <edge id=":1242650267_0" function="internal">
        <lane id=":1242650267_0_0" index="0" allow="pedestrian delivery bicycle" speed="5.23" length="5.23" shape="290114.16,4780902.96 290113.38,4780901.68 290112.42,4780900.92 290111.28,4780900.68 290109.96,4780900.96"/>
    </edge>
    <edge id=":1242650267_1" function="internal">
        <lane id=":1242650267_1_0" index="0" allow="pedestrian delivery bicycle" speed="6.82" length="10.45" shape="290114.16,4780902.96 290113.36,4780900.19 290113.67,4780897.87 290115.08,4780896.01 290117.60,4780894.60"/>
    </edge>
    <edge id=":1242650267_2" function="internal">
        <lane id=":1242650267_2_0" index="0" allow="pedestrian delivery bicycle" speed="3.65" length="4.67" shape="290114.16,4780902.96 290114.40,4780901.54 290114.96,4780900.84 290115.86,4780900.88 290117.08,4780901.64"/>
    </edge>
    <edge id=":1242650267_3" function="internal">
        <lane id=":1242650267_3_0" index="0" allow="pedestrian delivery bicycle" speed="4.98" length="5.07" shape="290118.75,4780897.59 290117.53,4780898.27 290116.84,4780899.18 290116.69,4780900.30 290117.08,4780901.64"/>
    </edge>
    <edge id=":1242650267_4" function="internal">
        <lane id=":1242650267_4_0" index="0" disallow="tram rail_urban rail rail_electric rail_fast ship" speed="13.41" length="9.41" shape="290118.75,4780897.59 290109.96,4780900.96"/>
    </edge>
    <edge id=":1242650267_5" function="internal">
        <lane id=":1242650267_5_0" index="0" disallow="tram rail_urban rail rail_electric rail_fast ship" speed="13.41" length="9.41" shape="290108.82,4780897.97 290117.60,4780894.60"/>
    </edge>
    <edge id=":1242650267_6" function="internal">
        <lane id=":1242650267_6_0" index="0" allow="pedestrian delivery bicycle" speed="7.01" length="3.15" shape="290108.82,4780897.97 290111.45,4780897.39 290111.90,4780897.48"/>
    </edge>
    <edge id=":1242650267_7" function="internal">
        <lane id=":1242650267_7_0" index="0" allow="pedestrian delivery bicycle" speed="7.01" length="7.03" shape="290111.90,4780897.48 290113.70,4780897.81 290115.58,4780899.23 290117.08,4780901.64"/>
    </edge>
    <edge id=":1242650549_0" function="internal">
        <lane id=":1242650549_0_0" index="0" allow="pedestrian delivery bicycle" speed="5.02" length="5.02" shape="290200.49,4781033.50 290199.84,4781032.28 290198.95,4781031.58 290197.84,4781031.38 290196.50,4781031.69"/>
    </edge>
    <edge id=":1242650549_1" function="internal">
        <lane id=":1242650549_1_0" index="0" allow="pedestrian delivery bicycle" speed="5.56" length="9.51" shape="290200.49,4781033.50 290199.73,4781030.76 290199.36,4781028.76 290198.66,4781026.98 290196.91,4781024.90"/>
    </edge>
    <edge id=":1242650549_2" function="internal">
        <lane id=":1242650549_2_0" index="0" allow="pedestrian delivery bicycle" speed="3.65" length="4.67" shape="290200.49,4781033.50 290200.83,4781032.09 290201.44,4781031.44 290202.33,4781031.54 290203.50,4781032.39"/>
    </edge>
    <edge id=":1242650549_3" function="internal">
        <lane id=":1242650549_3_0" index="0" allow="pedestrian delivery bicycle" speed="5.56" length="9.59" shape="290200.20,4781023.62 290201.92,4781025.73 290202.51,4781027.57 290202.78,4781029.62 290203.50,4781032.39"/>
    </edge>
    <edge id=":1242650549_4" function="internal">
        <lane id=":1242650549_4_0" index="0" allow="pedestrian delivery bicycle" speed="5.56" length="11.42" shape="290200.20,4781023.62 290201.83,4781025.89 290201.75,4781028.00 290199.97,4781029.93 290196.50,4781031.69"/>
    </edge>
    <edge id=":1242650549_5" function="internal">
        <lane id=":1242650549_5_0" index="0" allow="pedestrian delivery bicycle" speed="3.78" length="5.16" shape="290200.20,4781023.62 290199.86,4781025.17 290199.20,4781025.90 290198.21,4781025.81 290196.91,4781024.90"/>
    </edge>
    <edge id=":1242650549_6" function="internal">
        <lane id=":1242650549_6_0" index="0" allow="pedestrian delivery bicycle" speed="4.60" length="5.32" shape="290195.34,4781028.70 290196.92,4781027.89 290197.71,4781026.99 290197.71,4781025.99 290196.91,4781024.90"/>
    </edge>
    <edge id=":1242650549_7" function="internal">
        <lane id=":1242650549_7_0" index="0" allow="pedestrian delivery bicycle" speed="5.56" length="10.25" shape="290195.34,4781028.70 290198.09,4781028.07 290200.36,4781028.47 290202.16,4781029.92 290203.50,4781032.39"/>
    </edge>
    <edge id=":1242650549_8" function="internal">
        <lane id=":1242650549_8_0" index="0" allow="pedestrian delivery bicycle" speed="3.65" length="4.67" shape="290195.34,4781028.70 290196.75,4781029.02 290197.41,4781029.62 290197.33,4781030.51 290196.50,4781031.69"/>
    </edge>
    <edge id=":1242650555_0" function="internal">
        <lane id=":1242650555_0_0" index="0" allow="pedestrian delivery bicycle" speed="5.56" length="9.40" shape="290227.15,4781106.19 290223.91,4781097.37"/>
    </edge>
    <edge id=":1242650555_1" function="internal">
        <lane id=":1242650555_1_0" index="0" allow="pedestrian delivery bicycle" speed="5.56" length="10.16" shape="290227.15,4781106.19 290226.57,4781103.48 290227.01,4781101.23 290228.45,4781099.43 290230.90,4781098.10"/>
    </edge>
    <edge id=":1242650555_2" function="internal">
        <lane id=":1242650555_2_0" index="0" allow="pedestrian delivery bicycle" speed="3.65" length="4.67" shape="290227.15,4781106.19 290227.49,4781104.79 290228.10,4781104.14 290228.99,4781104.24 290230.15,4781105.09"/>
    </edge>
    <edge id=":1242650555_3" function="internal">
        <lane id=":1242650555_3_0" index="0" allow="pedestrian delivery bicycle" speed="5.06" length="5.02" shape="290232.02,4781101.10 290230.80,4781101.76 290230.09,4781102.64 290229.87,4781103.76 290230.15,4781105.09"/>
    </edge>
    <edge id=":1242650555_4" function="internal">
        <lane id=":1242650555_4_0" index="0" allow="pedestrian delivery bicycle" speed="5.56" length="10.19" shape="290232.02,4781101.10 290229.29,4781101.69 290227.03,4781101.27 290225.24,4781099.83 290223.91,4781097.37"/>
    </edge>
    <edge id=":1242650555_5" function="internal">
        <lane id=":1242650555_5_0" index="0" allow="pedestrian delivery bicycle" speed="3.65" length="4.67" shape="290232.02,4781101.10 290230.62,4781100.77 290229.96,4781100.16 290230.06,4781099.27 290230.90,4781098.10"/>
    </edge>
    <edge id=":1242650555_6" function="internal">
        <lane id=":1242650555_6_0" index="0" allow="pedestrian delivery bicycle" speed="5.03" length="5.01" shape="290226.92,4781096.27 290227.57,4781097.48 290228.45,4781098.19 290229.56,4781098.39 290230.90,4781098.10"/>
    </edge>
    <edge id=":1242650555_7" function="internal">
        <lane id=":1242650555_7_0" index="0" allow="pedestrian delivery bicycle" speed="5.56" length="9.40" shape="290226.92,4781096.27 290230.15,4781105.09"/>
    </edge>
    <edge id=":1242650555_8" function="internal">
        <lane id=":1242650555_8_0" index="0" allow="pedestrian delivery bicycle" speed="3.65" length="4.67" shape="290226.92,4781096.27 290226.58,4781097.67 290225.97,4781098.32 290225.08,4781098.22 290223.91,4781097.37"/>
    </edge>
    <edge id=":1242650651_0" function="internal">
        <lane id=":1242650651_0_0" index="0" disallow="tram rail_urban rail rail_electric rail_fast ship" speed="27.78" length="9.41" shape="290336.22,4781145.97 290327.63,4781149.82"/>
    </edge>
    <edge id=":1242650651_1" function="internal">
        <lane id=":1242650651_1_0" index="0" allow="pedestrian delivery bicycle" speed="6.81" length="3.32" shape="290336.22,4781145.97 290333.44,4781146.76 290333.02,4781146.70"/>
    </edge>
    <edge id=":1242650651_7" function="internal">
        <lane id=":1242650651_7_0" index="0" allow="pedestrian delivery bicycle" speed="6.81" length="7.14" shape="290333.02,4781146.70 290331.12,4781146.45 290329.27,4781145.03 290327.87,4781142.50"/>
    </edge>
    <edge id=":1242650651_2" function="internal">
        <lane id=":1242650651_2_0" index="0" allow="pedestrian delivery bicycle" speed="4.98" length="5.07" shape="290330.86,4781141.36 290331.54,4781142.59 290332.44,4781143.28 290333.56,4781143.43 290334.91,4781143.05"/>
    </edge>
    <edge id=":1242650651_3" function="internal">
        <lane id=":1242650651_3_0" index="0" allow="pedestrian delivery bicycle" speed="7.02" length="10.18" shape="290330.86,4781141.36 290331.51,4781144.14 290331.19,4781146.47 290329.89,4781148.36 290327.63,4781149.82"/>
    </edge>
    <edge id=":1242650651_4" function="internal">
        <lane id=":1242650651_4_0" index="0" allow="pedestrian delivery bicycle" speed="3.65" length="4.67" shape="290330.86,4781141.36 290330.54,4781142.77 290329.93,4781143.43 290329.04,4781143.34 290327.87,4781142.50"/>
    </edge>
    <edge id=":1242650651_5" function="internal">
        <lane id=":1242650651_5_0" index="0" allow="pedestrian delivery bicycle" speed="5.24" length="5.25" shape="290326.32,4781146.89 290327.45,4781146.16 290328.08,4781145.18 290328.22,4781143.96 290327.87,4781142.50"/>
    </edge>
    <edge id=":1242650651_6" function="internal">
        <lane id=":1242650651_6_0" index="0" disallow="tram rail_urban rail rail_electric rail_fast ship" speed="27.78" length="9.41" shape="290326.32,4781146.89 290334.91,4781143.05"/>
    </edge>
    <edge id=":1271995830_0" function="internal">
        <lane id=":1271995830_0_0" index="0" disallow="tram rail_urban rail rail_electric rail_fast ship" speed="13.89" length="9.40" shape="290367.60,4780469.47 290363.95,4780460.80"/>
    </edge>
    <edge id=":1271995830_1" function="internal">
        <lane id=":1271995830_1_0" index="0" allow="pedestrian delivery bicycle" speed="6.87" length="3.26" shape="290367.60,4780469.47 290366.89,4780466.78 290366.96,4780466.31"/>
    </edge>
    <edge id=":1271995830_7" function="internal">
        <lane id=":1271995830_7_0" index="0" allow="pedestrian delivery bicycle" speed="6.87" length="6.90" shape="290366.96,4780466.31 290367.22,4780464.51 290368.58,4780462.65 290370.96,4780461.21"/>
    </edge>
    <edge id=":1271995830_2" function="internal">
        <lane id=":1271995830_2_0" index="0" allow="pedestrian delivery bicycle" speed="5.05" length="5.02" shape="290372.22,4780464.15 290371.04,4780464.87 290370.36,4780465.78 290370.20,4780466.90 290370.55,4780468.23"/>
    </edge>
    <edge id=":1271995830_3" function="internal">
        <lane id=":1271995830_3_0" index="0" allow="pedestrian delivery bicycle" speed="6.86" length="10.18" shape="290372.22,4780464.15 290369.52,4780464.87 290367.24,4780464.55 290365.39,4780463.20 290363.95,4780460.80"/>
    </edge>
    <edge id=":1271995830_4" function="internal">
        <lane id=":1271995830_4_0" index="0" allow="pedestrian delivery bicycle" speed="3.65" length="4.67" shape="290372.22,4780464.15 290370.80,4780463.89 290370.12,4780463.31 290370.17,4780462.41 290370.96,4780461.21"/>
    </edge>
    <edge id=":1271995830_5" function="internal">
        <lane id=":1271995830_5_0" index="0" allow="pedestrian delivery bicycle" speed="5.04" length="5.00" shape="290366.90,4780459.56 290367.61,4780460.74 290368.52,4780461.41 290369.64,4780461.56 290370.96,4780461.21"/>
    </edge>
    <edge id=":1271995830_6" function="internal">
        <lane id=":1271995830_6_0" index="0" disallow="tram rail_urban rail rail_electric rail_fast ship" speed="13.89" length="9.40" shape="290366.90,4780459.56 290370.55,4780468.23"/>
    </edge>
    <edge id=":1271995837_0" function="internal">
        <lane id=":1271995837_0_0" index="0" allow="pedestrian delivery bicycle" speed="3.65" length="4.67" shape="290386.90,4780454.44 290388.32,4780454.71 290389.00,4780455.29 290388.94,4780456.18 290388.15,4780457.38"/>
    </edge>
    <edge id=":1271995845_0" function="internal">
        <lane id=":1271995845_0_0" index="0" disallow="tram rail_urban rail rail_electric rail_fast ship" speed="13.89" length="9.40" shape="290360.44,4780452.47 290356.79,4780443.81"/>
    </edge>
    <edge id=":1271995845_1" function="internal">
        <lane id=":1271995845_1_0" index="0" allow="pedestrian delivery bicycle" speed="6.85" length="3.28" shape="290360.44,4780452.47 290359.73,4780449.75 290359.80,4780449.29"/>
    </edge>
    <edge id=":1271995845_7" function="internal">
        <lane id=":1271995845_7_0" index="0" allow="pedestrian delivery bicycle" speed="6.85" length="6.97" shape="290359.80,4780449.29 290360.07,4780447.46 290361.46,4780445.62 290363.90,4780444.21"/>
    </edge>
    <edge id=":1271995845_2" function="internal">
        <lane id=":1271995845_2_0" index="0" allow="pedestrian delivery bicycle" speed="5.02" length="5.02" shape="290365.08,4780447.18 290363.89,4780447.87 290363.21,4780448.78 290363.04,4780449.89 290363.39,4780451.23"/>
    </edge>
    <edge id=":1271995845_3" function="internal">
        <lane id=":1271995845_3_0" index="0" allow="pedestrian delivery bicycle" speed="6.91" length="10.17" shape="290365.08,4780447.18 290362.36,4780447.85 290360.07,4780447.51 290358.22,4780446.16 290356.79,4780443.81"/>
    </edge>
    <edge id=":1271995845_4" function="internal">
        <lane id=":1271995845_4_0" index="0" allow="pedestrian delivery bicycle" speed="3.65" length="4.67" shape="290365.08,4780447.18 290363.67,4780446.89 290363.00,4780446.29 290363.08,4780445.40 290363.90,4780444.21"/>
    </edge>
    <edge id=":1271995845_5" function="internal">
        <lane id=":1271995845_5_0" index="0" allow="pedestrian delivery bicycle" speed="5.10" length="5.07" shape="290359.74,4780442.56 290360.45,4780443.73 290361.38,4780444.39 290362.53,4780444.55 290363.90,4780444.21"/>
    </edge>
    <edge id=":1271995845_6" function="internal">
        <lane id=":1271995845_6_0" index="0" disallow="tram rail_urban rail rail_electric rail_fast ship" speed="13.89" length="9.40" shape="290359.74,4780442.56 290363.39,4780451.23"/>
    </edge>
    <edge id=":1967472140_0" function="internal">
        <lane id=":1967472140_0_0" index="0" disallow="tram rail_urban rail rail_electric rail_fast ship" speed="13.41" length="9.40" shape="290416.02,4780480.41 290407.34,4780484.01"/>
    </edge>
    <edge id=":1967472140_1" function="internal">
        <lane id=":1967472140_1_0" index="0" allow="pedestrian delivery bicycle" speed="6.85" length="3.27" shape="290416.02,4780480.41 290413.31,4780481.10 290412.84,4780481.03"/>
    </edge>
    <edge id=":1967472140_7" function="internal">
        <lane id=":1967472140_7_0" index="0" allow="pedestrian delivery bicycle" speed="6.85" length="6.93" shape="290412.84,4780481.03 290411.03,4780480.76 290409.19,4780479.38 290407.78,4780476.96"/>
    </edge>
    <edge id=":1967472140_2" function="internal">
        <lane id=":1967472140_2_0" index="0" allow="pedestrian delivery bicycle" speed="5.03" length="5.01" shape="290410.75,4780475.76 290411.44,4780476.95 290412.34,4780477.63 290413.46,4780477.79 290414.79,4780477.45"/>
    </edge>
    <edge id=":1967472140_3" function="internal">
        <lane id=":1967472140_3_0" index="0" allow="pedestrian delivery bicycle" speed="6.88" length="10.16" shape="290410.75,4780475.76 290411.42,4780478.47 290411.08,4780480.75 290409.72,4780482.60 290407.34,4780484.01"/>
    </edge>
    <edge id=":1967472140_4" function="internal">
        <lane id=":1967472140_4_0" index="0" allow="pedestrian delivery bicycle" speed="3.65" length="4.67" shape="290410.75,4780475.76 290410.45,4780477.17 290409.86,4780477.85 290408.97,4780477.78 290407.78,4780476.96"/>
    </edge>
    <edge id=":1967472140_5" function="internal">
        <lane id=":1967472140_5_0" index="0" allow="pedestrian delivery bicycle" speed="5.07" length="5.03" shape="290406.11,4780481.06 290407.28,4780480.36 290407.95,4780479.44 290408.12,4780478.31 290407.78,4780476.96"/>
    </edge>
    <edge id=":1967472140_6" function="internal">
        <lane id=":1967472140_6_0" index="0" disallow="tram rail_urban rail rail_electric rail_fast ship" speed="13.41" length="9.40" shape="290406.11,4780481.06 290414.79,4780477.45"/>
    </edge>
    <edge id=":212626681_0" function="internal">
        <lane id=":212626681_0_0" index="0" disallow="tram rail_urban rail rail_electric rail_fast ship" speed="13.41" length="11.15" shape="290207.45,4780568.48 290197.20,4780572.88"/>
    </edge>
    <edge id=":212626681_1" function="internal">
        <lane id=":212626681_1_0" index="0" disallow="tram rail_urban rail rail_electric rail_fast ship" speed="7.18" length="2.63" shape="290207.45,4780568.48 290204.99,4780568.96 290204.88,4780568.92"/>
    </edge>
    <edge id=":212626681_2" function="internal">
        <lane id=":212626681_2_0" index="0" disallow="tram rail_urban rail rail_electric rail_fast ship" speed="3.65" length="1.44" shape="290207.45,4780568.48 290206.04,4780568.21"/>
    </edge>
    <edge id=":212626681_9" function="internal">
        <lane id=":212626681_9_0" index="0" disallow="tram rail_urban rail rail_electric rail_fast ship" speed="7.18" length="8.67" shape="290204.88,4780568.92 290202.77,4780568.21 290200.81,4780566.22 290199.10,4780562.99"/>
    </edge>
    <edge id=":212626681_10" function="internal">
        <lane id=":212626681_10_0" index="0" disallow="tram rail_urban rail rail_electric rail_fast ship" speed="3.65" length="3.23" shape="290206.04,4780568.21 290205.36,4780567.63 290205.41,4780566.74 290206.21,4780565.54"/>
    </edge>
    <edge id=":212626681_3" function="internal">
        <lane id=":212626681_3_0" index="0" disallow="tram rail_urban rail rail_electric rail_fast ship" speed="5.50" length="6.18" shape="290202.05,4780561.77 290203.04,4780563.77 290204.06,4780565.06 290205.12,4780565.65 290206.21,4780565.54"/>
    </edge>
    <edge id=":212626681_4" function="internal">
        <lane id=":212626681_4_0" index="0" disallow="tram rail_urban rail rail_electric rail_fast ship" speed="7.93" length="13.78" shape="290202.05,4780561.77 290202.94,4780565.33 290202.42,4780568.37 290200.51,4780570.89 290197.20,4780572.88"/>
    </edge>
    <edge id=":212626681_5" function="internal">
        <lane id=":212626681_5_0" index="0" disallow="tram rail_urban rail rail_electric rail_fast ship" speed="3.65" length="4.67" shape="290202.05,4780561.77 290201.77,4780563.18 290201.19,4780563.86 290200.29,4780563.79 290199.10,4780562.99"/>
    </edge>
    <edge id=":212626681_6" function="internal">
        <lane id=":212626681_6_0" index="0" disallow="tram rail_urban rail rail_electric rail_fast ship" speed="6.42" length="8.67" shape="290195.94,4780569.94 290198.05,4780568.68 290199.29,4780567.10 290199.63,4780565.20 290199.10,4780562.99"/>
    </edge>
    <edge id=":212626681_7" function="internal">
        <lane id=":212626681_7_0" index="0" disallow="tram rail_urban rail rail_electric rail_fast ship" speed="13.41" length="11.17" shape="290195.94,4780569.94 290206.21,4780565.54"/>
    </edge>
    <edge id=":212626681_8" function="internal">
        <lane id=":212626681_8_0" index="0" disallow="tram rail_urban rail rail_electric rail_fast ship" speed="3.65" length="1.44" shape="290195.94,4780569.94 290197.35,4780570.20"/>
    </edge>
    <edge id=":212626681_11" function="internal">
        <lane id=":212626681_11_0" index="0" disallow="tram rail_urban rail rail_electric rail_fast ship" speed="3.65" length="3.23" shape="290197.35,4780570.20 290198.04,4780570.77 290197.99,4780571.67 290197.20,4780572.88"/>
    </edge>
    <edge id=":212626683_0" function="internal">
        <lane id=":212626683_0_0" index="0" disallow="tram rail_urban rail rail_electric rail_fast ship" speed="6.49" length="9.03" shape="290118.08,4780367.07 290116.82,4780364.94 290115.18,4780363.73 290113.16,4780363.44 290110.76,4780364.08"/>
    </edge>
    <edge id=":212626683_1" function="internal">
        <lane id=":212626683_1_0" index="0" disallow="tram rail_urban rail rail_electric rail_fast ship" speed="13.89" length="14.43" shape="290118.08,4780367.07 290112.53,4780353.76"/>
    </edge>